!-Generator IDFEditor 1.25 'current version of IDFEditor - less than 1 is a beta

!-NOTE: All comments with '!-' are ignored by the IDFEditor and are generated automatically.
!-      Use '!' comments if they need to be retained when using the IDFEditor.


!-   ===========  ALL OBJECTS IN CLASS: VERSION ===========

VERSION,
    1.2.2;                   !- Version Identifier


!-   ===========  ALL OBJECTS IN CLASS: BUILDING ===========

BUILDING,
    office zone,             !- Building Name
    45,                      !- North Axis {deg}
    3,                       !- Terrain
    0.04,                    !- Loads Convergence Tolerance Value {W}
    0.004,                   !- Temperature Convergence Tolerance Value {deltaC}
    FullExterior,            !- Solar Distribution
    5;                        !- Maximum Number of Warmup Days

 BCVTB,                     !- Object to activate BCVTB interface
  PtolemyLink;              !- Name of BCVTB


!-   ===========  ALL OBJECTS IN CLASS: TIMESTEP IN HOUR ===========

TIMESTEP IN HOUR,
    60;                       !- Time Step in Hour


SOLUTION ALGORITHM,
  CondFD;
!	CTF;


!-   ===========  ALL OBJECTS IN CLASS: INSIDE CONVECTION ALGORITHM ===========

INSIDE CONVECTION ALGORITHM,
    1;                       !- InsideConvectionValue


!-   ===========  ALL OBJECTS IN CLASS: OUTSIDE CONVECTION ALGORITHM ===========

OUTSIDE CONVECTION ALGORITHM,
    1;                       !- OutsideConvectionValue


!-   ===========  ALL OBJECTS IN CLASS: ZONE VOLUME CAPACITANCE MULTIPLIER ===========

ZONE VOLUME CAPACITANCE MULTIPLIER,
    1.2;                     !- Capacitance Multiplier


!-   ===========  ALL OBJECTS IN CLASS: RUN CONTROL ===========

!-- RUN CONTROL,
!--     Yes,                     !- Do the zone sizing calculation
!--     No,                      !- Do the system sizing calculation
!--     Yes,                     !- Do the plant sizing calculation
!--     No,                      !- Do the design day simulations
!--     Yes;                     !- Do the weather file simulation
RUN CONTROL,
    No,                      !- Do the zone sizing calculation
    No,                      !- Do the system sizing calculation
    No,                      !- Do the plant sizing calculation
    No,                      !- Do the design day simulations
    Yes;                     !- Do the weather file simulation


!-   ===========  ALL OBJECTS IN CLASS: RUNPERIOD ===========

RunPeriod,
    6,                       !- Begin Month
    28,                      !- Begin Day Of Month
    7,                       !- End Month
    3,                       !- End Day Of Month
    Sunday,                  !- Day Of Week For Start Day
    No,                      !- Use WeatherFile Holidays/Special Days
    No,                      !- Use WeatherFile DaylightSavingPeriod
    ,                        !- Apply Weekend Holiday Rule
    ,                        !- Use WeatherFile Rain Indicators
    ;                        !- Use WeatherFile Snow Indicators


!HARDWARE INTERFACE MANAGER,
!  On,
!  7,
!  1,
!  06,
!  00,
!  No,
!  73.1484,
!  sffb,
!  0.5,
!  1.0,
!  15.0,
!  Yes,
!  No;
       

!-   ===========  ALL OBJECTS IN CLASS: DAYLIGHTSAVINGPERIOD ===========

DaylightSavingPeriod,
    1st Sunday in April,     !- StartDate
    Last Sunday in October;  !- EndDate


!-   ===========  ALL OBJECTS IN CLASS: LOCATION ===========

Location,
    San Francisco CA,        !- LocationName
    37.62,                   !- Latitude {deg}
    -122.38,                 !- Longitude {deg}
    -8,                      !- TimeZone {hr}
    5;                       !- Elevation {m}


!-   ===========  ALL OBJECTS IN CLASS: DESIGNDAY ===========

! SAN_FRANCISCO_CA_USA Heating 99.6%, MaxDB=   2.70 Wind Speed=   2.40 Wind Dir= 160.00
DesignDay,
    SAN_FRANCISCO_CA_USA Heating 99.6% Conditions,  !- DesignDayName
    2.700000,                !- Maximum Dry-Bulb Temperature {C}
    0,                       !- Daily Temperature Range {deltaC}
    2.700000,                !- Humidity Indicating Temperature at Max Temp {C}
    101264.9,                !- Barometric Pressure {Pa}
    2.400000,                !- Wind Speed {m/s}
    160.0000,                !- Wind Direction {deg}
    0,                       !- Sky Clearness
    0,                       !- Rain Indicator
    0,                       !- Snow Indicator
    21,                      !- Day Of Month
    1,                       !- Month
    WinterDesignDay,         !- Day Type
    0,                       !- Daylight Saving Time Indicator
    Wet-Bulb;                !- Humidity Indicating Temperature Type


!-   ===========  ALL OBJECTS IN CLASS: MATERIAL:REGULAR ===========

MATERIAL:REGULAR,
    DENSE_CONCRETE_200,      !- Name
    Rough,                   !- Roughness
    0.2,                     !- Thickness {m}
    2,                       !- Conductivity {W/m-K}
    2323,                    !- Density {kg/m3}
    900,                     !- Specific Heat {J/kg-K}
    0.9,                     !- Absorptance:Thermal
    0.4,                     !- Absorptance:Solar
    0.4;                     !- Absorptance:Visible

MATERIAL:REGULAR,
    CONCRETE_FLOOR_32MM,     !- Name
    Rough,                   !- Roughness
    0.032,                   !- Thickness {m}
    0.95,                    !- Conductivity {W/m-K}
    1763,                    !- Density {kg/m3}
    900,                     !- Specific Heat {J/kg-K}
    0.9,                     !- Absorptance:Thermal
    0.6,                     !- Absorptance:Solar
    0.6;                     !- Absorptance:Visible

MATERIAL:REGULAR,
    cabinpanel,              !- Name
    Rough,                   !- Roughness
    0.05,                    !- Thickness {m}
    0.67,                    !- Conductivity {W/m-K}
    1000,                    !- Density {kg/m3}
    1000,                    !- Specific Heat {J/kg-K}
    0.9,                     !- Absorptance:Thermal
    0.9,                     !- Absorptance:Solar
    0.7;                     !- Absorptance:Visible

MATERIAL:REGULAR,
    cabinroof,               !- Name
    Rough,                   !- Roughness
    0.05,                    !- Thickness {m}
    0.26,                    !- Conductivity {W/m-K}
    1000,                    !- Density {kg/m3}
    1000,                    !- Specific Heat {J/kg-K}
    0.9,                     !- Absorptance:Thermal
    0.9,                     !- Absorptance:Solar
    0.7;                     !- Absorptance:Visible

MATERIAL:REGULAR,
    DENSE_CONCRETE_100,      !- Name
    Rough,                   !- Roughness
    0.1,                     !- Thickness {m}
    2,                       !- Conductivity {W/m-K}
    2323,                    !- Density {kg/m3}
    900,                     !- Specific Heat {J/kg-K}
    0.9,                     !- Absorptance:Thermal
    0.4,                     !- Absorptance:Solar
    0.4;                     !- Absorptance:Visible

MATERIAL:REGULAR,
    DENSE_CONCRETE_300,      !- Name
    Rough,                   !- Roughness
    0.3,                     !- Thickness {m}
    2,                       !- Conductivity {W/m-K}
    2323,                    !- Density {kg/m3}
    900,                     !- Specific Heat {J/kg-K}
    0.9,                     !- Absorptance:Thermal
    0.4,                     !- Absorptance:Solar
    0.4;                     !- Absorptance:Visible


!-   ===========  ALL OBJECTS IN CLASS: MATERIAL:REGULAR-R ===========

MATERIAL:REGULAR-R,
    CARPET + RUBBER PAD,     !- Name
    Rough,                   !- Roughness
    0.22,                    !- Thermal Resistance {m2-K/W}
    0.9,                     !- Absorptance:Thermal
    0.6,                     !- Absorptance:Solar
    0.6;                     !- Absorptance:Visible

MATERIAL:REGULAR-R,
    R-100,                   !- Name
    Rough,                   !- Roughness
    100,                     !- Thermal Resistance {m2-K/W}
    0.9,                     !- Absorptance:Thermal
    0.5,                     !- Absorptance:Solar
    0.5;                     !- Absorptance:Visible

MATERIAL:REGULAR-R,
    cabglazing,              !- Name
    VerySmooth,              !- Roughness
    0.01,                    !- Thermal Resistance {m2-K/W}
    0.9,                     !- Absorptance:Thermal
    0.9,                     !- Absorptance:Solar
    0.9;                     !- Absorptance:Visible

MATERIAL:REGULAR-R,
    R-1000,                  !- Name
    Rough,                   !- Roughness
    1000,                    !- Thermal Resistance {m2-K/W}
    0.9,                     !- Absorptance:Thermal
    0.5,                     !- Absorptance:Solar
    0.5;                     !- Absorptance:Visible


!-   ===========  ALL OBJECTS IN CLASS: MATERIAL:AIR ===========

MATERIAL:AIR,
    AirSpace90mm,            !- Name
    0.18;                    !- Thermal Resistance {m2-K/W}


!-   ===========  ALL OBJECTS IN CLASS: MATERIAL:WINDOWGLASS ===========

MATERIAL:WINDOWGLASS,
    LoE SPEC SEL CLEAR 6MM,  !- Name
    SpectralAverage,         !- Optical Data Type
    ,                        !- Name of Window Glass Spectral Data Set
    0.006,                   !- Thickness {m}
    0.43,                    !- Solar Transmittance at Normal Incidence
    0.3,                     !- Solar Reflectance at Normal Incidence: Front Side
    0.42,                    !- Solar Reflectance at Normal Incidence: Back Side
    0.77,                    !- Visible Transmittance at Normal Incidence
    0.07,                    !- Visible Reflectance at Normal Incidence: Front Side
    0.06,                    !- Visible Reflectance at Normal Incidence: Back Side
    0,                       !- IR Transmittance at Normal Incidence
    0.84,                    !- IR Hemispherical Emissivity: Front Side
    0.03,                    !- IR Hemispherical Emissivity: Back Side
    0.9;                     !- Conductivity {W/m-K}

MATERIAL:WINDOWGLASS,
    CLEAR 3MM,               !- Name
    SpectralAverage,         !- Optical Data Type
    ,                        !- Name of Window Glass Spectral Data Set
    0.003,                   !- Thickness {m}
    0.837,                   !- Solar Transmittance at Normal Incidence
    0.075,                   !- Solar Reflectance at Normal Incidence: Front Side
    0.075,                   !- Solar Reflectance at Normal Incidence: Back Side
    0.898,                   !- Visible Transmittance at Normal Incidence
    0.081,                   !- Visible Reflectance at Normal Incidence: Front Side
    0.081,                   !- Visible Reflectance at Normal Incidence: Back Side
    0,                       !- IR Transmittance at Normal Incidence
    0.84,                    !- IR Hemispherical Emissivity: Front Side
    0.84,                    !- IR Hemispherical Emissivity: Back Side
    0.9;                     !- Conductivity {W/m-K}

MATERIAL:WINDOWGLASS,
    VE22M,                   !- Name
    SpectralAverage,         !- Optical Data Type
    ,                        !- Name of Window Glass Spectral Data Set
    0.0057,                  !- Thickness {m}
    0.277,                   !- Solar Transmittance at Normal Incidence
    0.092,                   !- Solar Reflectance at Normal Incidence: Front Side
    0.447,                   !- Solar Reflectance at Normal Incidence: Back Side
    0.675,                   !- Visible Transmittance at Normal Incidence
    0.056,                   !- Visible Reflectance at Normal Incidence: Front Side
    0.037,                   !- Visible Reflectance at Normal Incidence: Back Side
    0,                       !- IR Transmittance at Normal Incidence
    0.84,                    !- IR Hemispherical Emissivity: Front Side
    0.05,                    !- IR Hemispherical Emissivity: Back Side
    0.9;                     !- Conductivity {W/m-K}

MATERIAL:WINDOWGLASS,
    Clear7.51a (Laminated),  !- Name
    SpectralAverage,         !- Optical Data Type
    ,                        !- Name of Window Glass Spectral Data Set
    0.0079,                  !- Thickness {m}
    0.676,                   !- Solar Transmittance at Normal Incidence
    0.063,                   !- Solar Reflectance at Normal Incidence: Front Side
    0.063,                   !- Solar Reflectance at Normal Incidence: Back Side
    0.864,                   !- Visible Transmittance at Normal Incidence
    0.076,                   !- Visible Reflectance at Normal Incidence: Front Side
    0.076,                   !- Visible Reflectance at Normal Incidence: Back Side
    0,                       !- IR Transmittance at Normal Incidence
    0.84,                    !- IR Hemispherical Emissivity: Front Side
    0.84,                    !- IR Hemispherical Emissivity: Back Side
    0.533;                   !- Conductivity {W/m-K}


!-   ===========  ALL OBJECTS IN CLASS: MATERIAL:WINDOWGAS ===========

MATERIAL:WINDOWGAS,
    AirSpace13.7mm,          !- Name
    Air,                     !- Gas Type
    0.0137;                  !- Thickness {m}


!-   ===========  ALL OBJECTS IN CLASS: MATERIAL:WINDOWSHADE ===========

MATERIAL:WINDOWSHADE,
    SCRIM,                   !- Name
    0.58,                    !- Solar transmittance
    0.419,                   !- Solar Reflectance
    0.58,                    !- Visible transmittance
    0.419,                   !- Visible reflectance
    0.9,                     !- Thermal hemispherical emissivity
    0.05,                    !- Thermal transmittance
    0.001,                   !- Thickness {m}
    1000,                    !- Conductivity {W/m-K}
    0.3,                     !- Shade-to-glass distance {m}
    1,                       !- Top opening multiplier
    1,                       !- Bottom opening multiplier
    0,                       !- Left-side opening multiplier
    0,                       !- Right-side opening multiplier
    0.58;                    !- Air flow permeability


!-   ===========  ALL OBJECTS IN CLASS: MATERIAL:WINDOWBLIND ===========

MATERIAL:WINDOWBLIND,
    Blind,                   !- Name
    Horizontal,              !- Slat orientation
    0.025,                   !- Slat width {m}
    0.02,                    !- Slat separation {m}
    0.00025,                 !- Slat thickness {m}
    90,                      !- Slat angle {deg}
    221,                     !- Slat conductivity {W/m-K}
    0,                       !- Slat beam solar transmittance
    0.7,                     !- Slat beam solar reflectance, front side
    0.7,                     !- Slat beam solar reflectance, back side
    0,                       !- Slat diffuse solar transmittance
    0.7,                     !- Slat diffuse solar reflectance, front side
    0.7,                     !- Slat diffuse solar reflectance, back side
    0,                       !- Slat beam visible transmittance
    0.7,                     !- Slat beam visible reflectance, front side
    0.7,                     !- Slat beam visible reflectance, back side
    0,                       !- Slat diffuse visible transmittance
    0.7,                     !- Slat diffuse visible reflectance, front side
    0.7,                     !- Slat diffuse visible reflectance, back side
    0,                       !- Slat IR (thermal) hemispherical transmittance
    0.9,                     !- Slat IR (thermal) hemispherical emissivity, front side
    0.9,                     !- Slat IR (thermal) hemispherical emissivity, back side
    0.05,                    !- Blind-to-glass distance {m}
    0.0,                     !- Blind top opening multiplier
    0.0,                     !- Blind bottom opening multiplier
    0.0,                     !- Blind left-side opening multiplier
    0.0,                     !- Blind right-side opening multiplier
    0,                       !- Minimum Slat Angle {deg}
    180;                     !- Maximum Slat Angle {deg}


!-   ===========  ALL OBJECTS IN CLASS: CONSTRUCTION ===========

CONSTRUCTION,
    ADIABATIC,               !- Name
    R-1000;                  !- Outside Layer

CONSTRUCTION,
    HWFLOOR,                 !- Name
    DENSE_CONCRETE_200,      !- Outside Layer
    AirSpace90mm,            !- Layer #2
    CONCRETE_FLOOR_32MM,     !- Layer #3
    CARPET + RUBBER PAD;     !- Layer #4

CONSTRUCTION,
    HWCEILING,               !- Name
    CARPET + RUBBER PAD,     !- Outside Layer
    CONCRETE_FLOOR_32MM,     !- Layer #2
    AirSpace90mm,            !- Layer #3
    DENSE_CONCRETE_200;      !- Layer #4

CONSTRUCTION,
    Single Pane Low e + Blind,  !- Name
    LoE SPEC SEL CLEAR 6MM,  !- Outside Layer
    BLIND;                   !- Layer #2

CONSTRUCTION,
    Single Pane Low e,       !- Name
    LoE SPEC SEL CLEAR 6MM;  !- Outside Layer

CONSTRUCTION,
    cabwall,                 !- Name
    R-1000;                  !- Outside Layer

CONSTRUCTION,
    cabroof,                 !- Name
    R-1000;                  !- Outside Layer

CONSTRUCTION,
    EDGEFLOOR,               !- Name
    CONCRETE_FLOOR_32MM,     !- Outside Layer
    CARPET + RUBBER PAD;     !- Layer #2

CONSTRUCTION,
    EDGECEILING,             !- Name
    CARPET + RUBBER PAD,     !- Outside Layer
    CONCRETE_FLOOR_32MM;     !- Layer #2

CONSTRUCTION,
    Single Pane Low e + Scrim,  !- Name
    SCRIM,                   !- Outside Layer
    LoE SPEC SEL CLEAR 6MM;  !- Layer #2

CONSTRUCTION,
    Double Pane Laminated inboard,  !- Name
    LoE SPEC SEL CLEAR 6MM;  !- Outside Layer

CONSTRUCTION,
    newSFFB0,                !- Name
    VE22M,                   !- Outside Layer
    AirSpace13.7mm,          !- Layer #2
    Clear7.51a (Laminated);  !- Layer #3

CONSTRUCTION,
    newSFFB0+Blind,          !- Name
    VE22M,                   !- Outside Layer
    AirSpace13.7mm,          !- Layer #2
    Clear7.51a (Laminated),  !- Layer #3
    BLIND;                   !- Layer #4

CONSTRUCTION,
    newSFFB0+Scrim,          !- Name
    SCRIM,                   !- Outside Layer
    VE22M,                   !- Layer #2
    AirSpace13.7mm,          !- Layer #3
    Clear7.51a (Laminated);  !- Layer #4

CONSTRUCTION,
    cabwindow,               !- Name
    R-1000;                  !- Outside Layer

CONSTRUCTION,
    COLUMN_1D,               !- Name
    DENSE_CONCRETE_100,      !- Outside Layer
    R-1000;                  !- Layer #2

CONSTRUCTION,
    SHEARWALL,               !- Name
    DENSE_CONCRETE_300;      !- Outside Layer


!-   ===========  ALL OBJECTS IN CLASS: ZONE ===========

ZONE,
    Z_NW,                    !- Zone Name
    0,                       !- Relative North (to building) {deg}
    0,                       !- X Origin {m}
    0,                       !- Y Origin {m}
    0,                       !- Z Origin {m}
    1,                       !- Type
    1,                       !- Multiplier
    3.3,                     !- Ceiling Height {m}
    198,                     !- Volume {m3}
    Detailed;                !- Zone Inside Convection Algorithm

ZONE,
    Z_SE,                    !- Zone Name
    0,                       !- Relative North (to building) {deg}
    16,                      !- X Origin {m}
    0,                       !- Y Origin {m}
    0,                       !- Z Origin {m}
    1,                       !- Type
    1,                       !- Multiplier
    3.3,                     !- Ceiling Height {m}
    132.66,                  !- Volume {m3}
    Detailed;                !- Zone Inside Convection Algorithm

ZONE,
    Z_GAP,                   !- Zone Name
    0,                       !- Relative North (to building) {deg}
    6.5,                     !- X Origin {m}
    0,                       !- Y Origin {m}
    0,                       !- Z Origin {m}
    1,                       !- Type
    1,                       !- Multiplier
    0.5,                     !- Ceiling Height {m}
    42.75,                   !- Volume {m3}
    Detailed;                !- Zone Inside Convection Algorithm

ZONE,
    Z_CAB,                   !- Zone Name
    0,                       !- Relative North (to building) {deg}
    6.5,                     !- X Origin {m}
    0,                       !- Y Origin {m}
    0,                       !- Z Origin {m}
    1,                       !- Type
    1,                       !- Multiplier
    2.8,                     !- Ceiling Height {m}
    239.4,                   !- Volume {m3}
    Detailed;                !- Zone Inside Convection Algorithm


!-   ===========  ALL OBJECTS IN CLASS: SURFACEGEOMETRY ===========

SurfaceGeometry,
    UpperLeftCorner,         !- SurfaceStartingPosition
    CounterClockWise,        !- VertexEntry
    relative;                !- CoordinateSystem


!-   ===========  ALL OBJECTS IN CLASS: SURFACE:HEATTRANSFER ===========

Surface:HeatTransfer,
    Z_NW_EdgeFloor,          !- User Supplied Surface Name
    FLOOR,                   !- Surface Type
    EDGEFLOOR,               !- Construction Name of the Surface
    Z_NW,                    !- InsideFaceEnvironment
    OtherZone,               !- OutsideFaceEnvironment
    Z_NW_EdgeCeiling,        !- OutsideFaceEnvironment Object
    NoSun,                   !- Sun Exposure
    NoWind,                  !- Wind Exposure
    0,                       !- View Factor to Ground
    4,                       !- Number of Surface Vertex Groups -- Number of (X,Y,Z) groups in this surface
    0,                       !- Vertex 1 X-coordinate {m}
    0,                       !- Vertex 1 Y-coordinate {m}
    0,                       !- Vertex 1 Z-coordinate {m}
    0,                       !- Vertex 2 X-coordinate {m}
    9,                       !- Vertex 2 Y-coordinate {m}
    0,                       !- Vertex 2 Z-coordinate {m}
    1.1,                     !- Vertex 3 X-coordinate {m}
    9,                       !- Vertex 3 Y-coordinate {m}
    0,                       !- Vertex 3 Z-coordinate {m}
    1.1,                     !- Vertex 4 X-coordinate {m}
    0,                       !- Vertex 4 Y-coordinate {m}
    0;                       !- Vertex 4 Z-coordinate {m}

Surface:HeatTransfer,
    Z_NW_Floor,              !- User Supplied Surface Name
    FLOOR,                   !- Surface Type
    HWFLOOR,                 !- Construction Name of the Surface
    Z_NW,                    !- InsideFaceEnvironment
    OtherZone,               !- OutsideFaceEnvironment
    Z_NW_Ceiling,            !- OutsideFaceEnvironment Object
    NoSun,                   !- Sun Exposure
    NoWind,                  !- Wind Exposure
    0,                       !- View Factor to Ground
    4,                       !- Number of Surface Vertex Groups -- Number of (X,Y,Z) groups in this surface
    1.1,                     !- Vertex 1 X-coordinate {m}
    0,                       !- Vertex 1 Y-coordinate {m}
    0,                       !- Vertex 1 Z-coordinate {m}
    1.1,                     !- Vertex 2 X-coordinate {m}
    9,                       !- Vertex 2 Y-coordinate {m}
    0,                       !- Vertex 2 Z-coordinate {m}
    6.5,                     !- Vertex 3 X-coordinate {m}
    9,                       !- Vertex 3 Y-coordinate {m}
    0,                       !- Vertex 3 Z-coordinate {m}
    6.5,                     !- Vertex 4 X-coordinate {m}
    0,                       !- Vertex 4 Y-coordinate {m}
    0;                       !- Vertex 4 Z-coordinate {m}

Surface:HeatTransfer,
    Z_NW_EdgeCeiling,        !- User Supplied Surface Name
    CEILING,                 !- Surface Type
    EDGECEILING,             !- Construction Name of the Surface
    Z_NW,                    !- InsideFaceEnvironment
    OtherZone,               !- OutsideFaceEnvironment
    Z_NW_EdgeFloor,          !- OutsideFaceEnvironment Object
    NoSun,                   !- Sun Exposure
    NoWind,                  !- Wind Exposure
    0,                       !- View Factor to Ground
    4,                       !- Number of Surface Vertex Groups -- Number of (X,Y,Z) groups in this surface
    0,                       !- Vertex 1 X-coordinate {m}
    0,                       !- Vertex 1 Y-coordinate {m}
    3.9,                     !- Vertex 1 Z-coordinate {m}
    1.1,                     !- Vertex 2 X-coordinate {m}
    0,                       !- Vertex 2 Y-coordinate {m}
    3.9,                     !- Vertex 2 Z-coordinate {m}
    1.1,                     !- Vertex 3 X-coordinate {m}
    9,                       !- Vertex 3 Y-coordinate {m}
    3.9,                     !- Vertex 3 Z-coordinate {m}
    0,                       !- Vertex 4 X-coordinate {m}
    9,                       !- Vertex 4 Y-coordinate {m}
    3.9;                     !- Vertex 4 Z-coordinate {m}

Surface:HeatTransfer,
    Z_NW_Ceiling,            !- User Supplied Surface Name
    CEILING,                 !- Surface Type
    HWCEILING,               !- Construction Name of the Surface
    Z_NW,                    !- InsideFaceEnvironment
    OtherZone,               !- OutsideFaceEnvironment
    Z_NW_Floor,              !- OutsideFaceEnvironment Object
    NoSun,                   !- Sun Exposure
    NoWind,                  !- Wind Exposure
    0,                       !- View Factor to Ground
    4,                       !- Number of Surface Vertex Groups -- Number of (X,Y,Z) groups in this surface
    1.1,                     !- Vertex 1 X-coordinate {m}
    0,                       !- Vertex 1 Y-coordinate {m}
    3.3,                     !- Vertex 1 Z-coordinate {m}
    6.5,                     !- Vertex 2 X-coordinate {m}
    0,                       !- Vertex 2 Y-coordinate {m}
    3.3,                     !- Vertex 2 Z-coordinate {m}
    6.5,                     !- Vertex 3 X-coordinate {m}
    9,                       !- Vertex 3 Y-coordinate {m}
    3.3,                     !- Vertex 3 Z-coordinate {m}
    1.1,                     !- Vertex 4 X-coordinate {m}
    9,                       !- Vertex 4 Y-coordinate {m}
    3.3;                     !- Vertex 4 Z-coordinate {m}

Surface:HeatTransfer,
    Z_NW_Facing,             !- User Supplied Surface Name
    WALL,                    !- Surface Type
    ADIABATIC,               !- Construction Name of the Surface
    Z_NW,                    !- InsideFaceEnvironment
    ExteriorEnvironment,     !- OutsideFaceEnvironment
    ,                        !- OutsideFaceEnvironment Object
    NoSun,                   !- Sun Exposure
    NoWind,                  !- Wind Exposure
    0,                       !- View Factor to Ground
    4,                       !- Number of Surface Vertex Groups -- Number of (X,Y,Z) groups in this surface
    1.1,                     !- Vertex 1 X-coordinate {m}
    0,                       !- Vertex 1 Y-coordinate {m}
    3.9,                     !- Vertex 1 Z-coordinate {m}
    1.1,                     !- Vertex 2 X-coordinate {m}
    0,                       !- Vertex 2 Y-coordinate {m}
    3.3,                     !- Vertex 2 Z-coordinate {m}
    1.1,                     !- Vertex 3 X-coordinate {m}
    9,                       !- Vertex 3 Y-coordinate {m}
    3.3,                     !- Vertex 3 Z-coordinate {m}
    1.1,                     !- Vertex 4 X-coordinate {m}
    9,                       !- Vertex 4 Y-coordinate {m}
    3.9;                     !- Vertex 4 Z-coordinate {m}

Surface:HeatTransfer,
    Z_NW_NW,                 !- User Supplied Surface Name
    WALL,                    !- Surface Type
    ADIABATIC,               !- Construction Name of the Surface
    Z_NW,                    !- InsideFaceEnvironment
    ExteriorEnvironment,     !- OutsideFaceEnvironment
    ,                        !- OutsideFaceEnvironment Object
    SunExposed,              !- Sun Exposure
    WindExposed,             !- Wind Exposure
    0.5,                     !- View Factor to Ground
    4,                       !- Number of Surface Vertex Groups -- Number of (X,Y,Z) groups in this surface
    0,                       !- Vertex 1 X-coordinate {m}
    9,                       !- Vertex 1 Y-coordinate {m}
    3.9,                     !- Vertex 1 Z-coordinate {m}
    0,                       !- Vertex 2 X-coordinate {m}
    9,                       !- Vertex 2 Y-coordinate {m}
    0,                       !- Vertex 2 Z-coordinate {m}
    0,                       !- Vertex 3 X-coordinate {m}
    0,                       !- Vertex 3 Y-coordinate {m}
    0,                       !- Vertex 3 Z-coordinate {m}
    0,                       !- Vertex 4 X-coordinate {m}
    0,                       !- Vertex 4 Y-coordinate {m}
    3.9;                     !- Vertex 4 Z-coordinate {m}

Surface:HeatTransfer,
    Z_NW_EdgeSW,             !- User Supplied Surface Name
    WALL,                    !- Surface Type
    COLUMN_1D,               !- Construction Name of the Surface
    Z_NW,                    !- InsideFaceEnvironment
    ExteriorEnvironment,     !- OutsideFaceEnvironment
    ,                        !- OutsideFaceEnvironment Object
    NoSun,                   !- Sun Exposure
    NoWind,                  !- Wind Exposure
    0,                       !- View Factor to Ground
    4,                       !- Number of Surface Vertex Groups -- Number of (X,Y,Z) groups in this surface
    0,                       !- Vertex 1 X-coordinate {m}
    0,                       !- Vertex 1 Y-coordinate {m}
    3.9,                     !- Vertex 1 Z-coordinate {m}
    0,                       !- Vertex 2 X-coordinate {m}
    0,                       !- Vertex 2 Y-coordinate {m}
    0,                       !- Vertex 2 Z-coordinate {m}
    1.1,                     !- Vertex 3 X-coordinate {m}
    0,                       !- Vertex 3 Y-coordinate {m}
    0,                       !- Vertex 3 Z-coordinate {m}
    1.1,                     !- Vertex 4 X-coordinate {m}